/*---------------------------------------------------------------------------*\
| =========                 |                                                 |
| \\      /  F ield         | OpenFOAM: The Open Source CFD Toolbox           |
|  \\    /   O peration     | Version:  2512                                  |
|   \\  /    A nd           | Website:  www.openfoam.com                      |
|    \\/     M anipulation  |                                                 |
\*---------------------------------------------------------------------------*/
Build  : _bd2b6720-20260127 OPENFOAM=2512 version=2512
Arch   : "LSB;label=32;scalar=64"
Exec   : snappyHexMesh -dict system/snappyHexMeshDict.plate -overwrite
Date   : Jun 18 2026
Time   : 12:46:37
Host   : P14s
PID    : 47285
I/O    : uncollated
Case   : /home/jakob/GitHub/oscfd-solutions/exercise-optimisation/step1
nProcs : 1
trapFpe: Floating point exception trapping enabled (FOAM_SIGFPE).
memory pool : not available
fileModificationChecking : Monitoring run-time modified files using timeStampMaster (fileModificationSkew 5, maxFileModificationPolls 20)
allowSystemOperations : Allowing user-supplied system call operations

// * * * * * * * * * * * * * * * * * * * * * * * * * * * * * * * * * * * * * //
Create time

Create mesh for time = 0

Read mesh in = 0.16 s

Overall mesh bounding box  : (-1.28714e-26 4.06576e-20 -1.28715e-26) (0.16 0.02 0.01)
Relative tolerance         : 1e-06
Absolute matching distance : 1.61555e-07

Reading refinement surfaces.
Read refinement surfaces in = 0 s

Reading refinement shells.
Read refinement shells in = 0 s

Setting refinement level of surface to be consistent with shells.
Checked shell refinement in = 0 s

Reading features.
Read features in = 0 s


Determining initial surface intersections
-----------------------------------------

Edge intersection testing:
    Number of edges             : 238519
    Number of edges to retest   : 0
    Number of intersected edges : 0
Edge intersection testing:
    Number of edges             : 238519
    Number of edges to retest   : 238519
    Number of intersected edges : 880
Calculated surface intersections in = 0.14 s

Initial mesh : cells:75145  faces:238519  points:88689
Cells per refinement level:
    0	814
    1	3907
    2	70424
Setting refinement level of surface to be consistent with curvature.
Checked curvature refinement in = 0 s


Adding patches for surface regions
----------------------------------

Patch Type                Region                        
----- ----                ------                        
wallPlate:

6     wall                wallPlate                     

Added patches in = 0.01 s

Edge intersection testing:
    Number of edges             : 238519
    Number of edges to retest   : 0
    Number of intersected edges : 880
Decomposition method none [1]

Refinement phase
----------------

Found point (0.01 0.01 0.005) in cell 1266 on processor 0

Surface refinement iteration 0
------------------------------

Marked for refinement due to surface intersection          : 872 cells.
Determined cells to refine in = 0.02 s
Selected for refinement : 872 cells (out of 75145)
Edge intersection testing:
    Number of edges             : 258967
    Number of edges to retest   : 25540
    Number of intersected edges : 3386
Refined mesh in = 0.18 s
After refinement surface refinement iteration 0 : cells:81249  faces:258967  points:96870
Cells per refinement level:
    0	814
    1	3907
    2	69552
    3	6976

Surface refinement iteration 1
------------------------------

Marked for refinement due to surface intersection          : 0 cells.
Determined cells to refine in = 0.01 s
Selected for refinement : 0 cells (out of 81249)
Stopping refining since too few cells selected.


Removing mesh beyond surface intersections
------------------------------------------

Setting cellZones according to locationsInMesh:
Location : (0.01 0.01 0.005)
    cellZone : none

For cellZone none found point (0.01 0.01 0.005) in global region 0 out of 2 regions.
--> FOAM Warning : 
    From void Foam::meshRefinement::nearestFace(const Foam::labelUList&, const Foam::bitSet&, Foam::autoPtr<Foam::mapDistribute>&, Foam::labelList&, Foam::label) const
    in file meshRefinement/meshRefinement.C at line 526
    Did not visit some faces, e.g. face 0 at (0.000594027 0.000614413 0.000294156)
Keeping all cells containing inside points
Selected for keeping : 81157 cells.
Edge intersection testing:
    Number of edges             : 258900
    Number of edges to retest   : 418
    Number of intersected edges : 3386

Shell refinement iteration 0
----------------------------

Marked for refinement due to distance to explicit features : 0 cells.
Marked for refinement due to refinement shells             : 0 cells.
Determined cells to refine in = 0.22 s
Selected for internal refinement : 632 cells (out of 81157)
Edge intersection testing:
    Number of edges             : 271806
    Number of edges to retest   : 33956
    Number of intersected edges : 3386
Refined mesh in = 0.23 s
After refinement shell refinement iteration 0 : cells:85581  faces:271806  points:101034
Cells per refinement level:
    0	814
    1	3907
    2	68920
    3	11940

Shell refinement iteration 1
----------------------------

Marked for refinement due to distance to explicit features : 0 cells.
Marked for refinement due to refinement shells             : 0 cells.
Determined cells to refine in = 0.02 s
Selected for internal refinement : 0 cells (out of 85581)
Stopping refining since too few cells selected.


Dangling coarse cells refinement iteration 0
--------------------------------------------

Determined cells to refine in = 0 s
Selected for refinement : 0 cells (out of 85581)
Stopping refining since too few cells selected.


Dangling coarse cells refinement iteration 0
--------------------------------------------

Determined cells to refine in = 0 s
Selected for refinement : 0 cells (out of 85581)
Stopping refining since too few cells selected.


Refinement transition refinement iteration 0
--------------------------------------------

Determined cells to refine in = 0.01 s
Selected for refinement : 0 cells (out of 85581)
Stopping refining since too few cells selected.


Splitting mesh at surface intersections
---------------------------------------

Introducing baffles for 3386 faces that are intersected by the surface.

Setting cellZones according to locationsInMesh:
Location : (0.01 0.01 0.005)
    cellZone : none

For cellZone none found point (0.01 0.01 0.005) in global region 0 out of 2 regions.
Edge intersection testing:
    Number of edges             : 274986
    Number of edges to retest   : 16750
    Number of intersected edges : 6554
Created baffles in = 0.18 s


After introducing baffles : cells:85581  faces:274986  points:101034
Cells per refinement level:
    0	814
    1	3907
    2	68920
    3	11940

Introducing baffles to block off problem cells
----------------------------------------------

markFacesOnProblemCells : marked 1080 additional internal faces to be converted into baffles.
Analyzed problem cells in = 0.14 s


Introducing baffles to delete problem cells.

Edge intersection testing:
    Number of edges             : 276066
    Number of edges to retest   : 4773
    Number of intersected edges : 6632
Created baffles in = 0.15 s


After introducing baffles : cells:85581  faces:276066  points:101034
Cells per refinement level:
    0	814
    1	3907
    2	68920
    3	11940
Setting cellZones according to locationsInMesh:
Location : (0.01 0.01 0.005)
    cellZone : none

For cellZone none found point (0.01 0.01 0.005) in global region 0 out of 439 regions.
Edge intersection testing:
    Number of edges             : 276066
    Number of edges to retest   : 17520
    Number of intersected edges : 6632

Remove unreachable sections of mesh
-----------------------------------

Keeping all cells containing points 1((0.01 0.01 0.005))
Selected for keeping : 82241 cells.
Edge intersection testing:
    Number of edges             : 263080
    Number of edges to retest   : 0
    Number of intersected edges : 3204
Split mesh in = 0.35 s


After subsetting : cells:82241  faces:263080  points:99089
Cells per refinement level:
    0	814
    1	3907
    2	68920
    3	8600

Introducing zones for interfaces
--------------------------------

Setting cellZones according to locationsInMesh:
Location : (0.01 0.01 0.005)
    cellZone : none

For cellZone none found point (0.01 0.01 0.005) in global region 0 out of 1 regions.
Setting faceZones according to neighbouring cellZones:

Edge intersection testing:
    Number of edges             : 263080
    Number of edges to retest   : 0
    Number of intersected edges : 3204

Handling cells with snap problems
---------------------------------

Introducing baffles for 3204 faces that are intersected by the surface.

Setting cellZones according to locationsInMesh:
Location : (0.01 0.01 0.005)
    cellZone : none

For cellZone none found point (0.01 0.01 0.005) in global region 0 out of 1 regions.
Edge intersection testing:
    Number of edges             : 263080
    Number of edges to retest   : 8546
    Number of intersected edges : 3204
Created baffles in = 0.35 s


After introducing baffles : cells:82241  faces:263080  points:99089
Cells per refinement level:
    0	814
    1	3907
    2	68920
    3	8600

Introducing baffles to block off problem cells
----------------------------------------------

markFacesOnProblemCells : marked 0 additional internal faces to be converted into baffles.
Analyzed problem cells in = 0.13 s


Introducing baffles to delete problem cells.

Created baffles in = 0.02 s


After introducing baffles : cells:82241  faces:263080  points:99089
Cells per refinement level:
    0	814
    1	3907
    2	68920
    3	8600
Setting cellZones according to locationsInMesh:
Location : (0.01 0.01 0.005)
    cellZone : none

For cellZone none found point (0.01 0.01 0.005) in global region 0 out of 1 regions.
Edge intersection testing:
    Number of edges             : 263080
    Number of edges to retest   : 8546
    Number of intersected edges : 3204

Remove unreachable sections of mesh
-----------------------------------

Split mesh in = 0.21 s


After subsetting : cells:82241  faces:263080  points:99089
Cells per refinement level:
    0	814
    1	3907
    2	68920
    3	8600

Merge free-standing baffles
---------------------------

freeStandingBaffles : detected 32 free-standing baffles out of 32

freeStandingBaffles : detected 0 planar (within 10 degrees) free-standing baffles out of 32

Detected free-standing baffles : 0
Merged free-standing baffles in = 0.04 s


dupNonManifoldPoints : Found : 33 non-manifold points (out of 99089)
Edge intersection testing:
    Number of edges             : 263080
    Number of edges to retest   : 0
    Number of intersected edges : 3204
Detected unsplittable baffles : 0

Merge refined boundary faces
----------------------------

Merging 0 sets of faces.

No faces merged ...

Merging all points on surface that
- are used by only two boundary faces and
- make an angle with a cosine of more than 0.707107.

No straight edges simplified and no points removed ...
Refined mesh : cells:82241  faces:263080  points:99122
Cells per refinement level:
    0	814
    1	3907
    2	68920
    3	8600
Writing mesh to time constant
Wrote mesh in = 0.13 s.
Mesh refined in = 2.62 s.

Morphing phase
--------------

Duplicating 0 points on faceZones of type boundary
Snapping to features in 30 iterations ...
Constructing mesh displacer ...
Using mesh parameters 
{
    maxNonOrtho     65;
    maxBoundarySkewness 20;
    maxInternalSkewness 4;
    maxConcave      80;
    minVol          1e-13;
    minTetQuality   1e-15;
    minArea         -1;
    minTwist        0.02;
    minDeterminant  0.001;
    minFaceWeight   0.05;
    minVolRatio     0.01;
    minTriangleTwist -1;
    minEdgeLength   -1;
    relaxed
    {
        maxNonOrtho     75;
    }
    nSmoothScale    4;
    errorReduction  0.75;
}


Checking initial mesh ...
Checking faces in error :
    non-orthogonality > 65  degrees                        : 0
    faces with face pyramid volume < 1e-13                 : 0
    faces with face-decomposition tet quality < 1e-15      : 0
    faces with concavity > 80  degrees                     : 0
    faces with skewness > 4   (internal) or 20  (boundary) : 0
    faces with interpolation weights (0..1)  < 0.05        : 0
    faces with volume ratio of neighbour cells < 0.01      : 0
    faces with face twist < 0.02                           : 0
    faces on cells with determinant < 0.001                : 0
Detected 0 illegal faces (concave, zero area or negative cell pyramid volume)
Checked initial mesh in = 0.45 s


Smoothing patch points ...
Smoothing iteration 0
Found 66 non-manifold point(s).

Scaling iteration 0
Moving mesh using displacement scaling : min:1 max:1
Checking faces in error :
    non-orthogonality > 65  degrees                        : 0
    faces with face pyramid volume < 1e-13                 : 0
    faces with face-decomposition tet quality < 1e-15      : 0
    faces with concavity > 80  degrees                     : 0
    faces with skewness > 4   (internal) or 20  (boundary) : 0
    faces with interpolation weights (0..1)  < 0.05        : 0
    faces with volume ratio of neighbour cells < 0.01      : 0
    faces with face twist < 0.02                           : 0
    faces on cells with determinant < 0.001                : 0
Successfully moved mesh

Patch points smoothed in = 0.13 s



Morph iteration 0
-----------------
Calculating patchDisplacement as distance to nearest surface point ...
    non-zone points : attract to nearest of all non-zone surfaces
    zone points     : attract to zone surface only

Wanted displacement : average:5.77784e-05 min:0 max:0.000148128
Calculated surface displacement in = 0 s


Detecting near surfaces ...
Overriding nearest with intersection of close gaps at 0 out of 3312 points.
Overriding displacement on features :
   implicit features    : true
   explicit features    : false
   multi-patch features : true

Attraction:
    linear   : max:(0.000104743 0.000104743 0) avg:(1.82162e-05 1.90131e-05 7.33277e-21)
    feature  : max:(0.000104743 0.000104743 -0) avg:(1.75632e-05 1.93319e-05 -4.16647e-20)
Feature analysis : total master points :3312 of which attracted to :
    feature point   : 8
    feature edge    : 316
    nearest surface : 2988
    rest            : 0

--> FOAM Warning : Displacement (9.5191e-09 -9.35193e-08 0) at mesh point 95075 coord (0.0490625 0.0030131 0) points through the surrounding patch faces
Smoothing displacement ...
Iteration 0
Iteration 10
Iteration 20
Iteration 30
Iteration 40
Iteration 50
Iteration 60
Iteration 70
Iteration 80
Iteration 90
Iteration 100
Iteration 110
Iteration 120
Iteration 130
Iteration 140
Iteration 150
Iteration 160
Iteration 170
Iteration 180
Iteration 190
Iteration 200
Iteration 210
Iteration 220
Iteration 230
Iteration 240
Iteration 250
Iteration 260
Iteration 270
Iteration 280
Iteration 290
Displacement smoothed in = 0.97 s


Moving mesh ...

Iteration 0
Moving mesh using displacement scaling : min:1 max:1
Checking faces in error :
    non-orthogonality > 65  degrees                        : 0
    faces with face pyramid volume < 1e-13                 : 0
    faces with face-decomposition tet quality < 1e-15      : 0
    faces with concavity > 80  degrees                     : 0
    faces with skewness > 4   (internal) or 20  (boundary) : 0
    faces with interpolation weights (0..1)  < 0.05        : 0
    faces with volume ratio of neighbour cells < 0.01      : 0
    faces with face twist < 0.02                           : 0
    faces on cells with determinant < 0.001                : 0
Successfully moved mesh
Moved mesh in = 0.24 s



Morph iteration 1
-----------------
Calculating patchDisplacement as distance to nearest surface point ...
    non-zone points : attract to nearest of all non-zone surfaces
    zone points     : attract to zone surface only

Wanted displacement : average:5.6561e-05 min:0 max:0.000146313
Calculated surface displacement in = 0 s


Detecting near surfaces ...
Overriding nearest with intersection of close gaps at 0 out of 3312 points.
Overriding displacement on features :
   implicit features    : true
   explicit features    : false
   multi-patch features : true

Attraction:
    linear   : max:(0.000103459 0.000103459 0) avg:(1.75834e-05 1.84313e-05 7.33277e-21)
    feature  : max:(0.000103459 0.000103459 -0) avg:(1.69311e-05 1.87497e-05 -5.86914e-20)
Feature analysis : total master points :3312 of which attracted to :
    feature point   : 8
    feature edge    : 316
    nearest surface : 2988
    rest            : 0

--> FOAM Warning : Displacement (3.80341e-08 -3.73661e-07 0) at mesh point 95075 coord (0.0490625 0.00301301 0) points through the surrounding patch faces
Smoothing displacement ...
Iteration 0
Iteration 10
Iteration 20
Iteration 30
Iteration 40
Iteration 50
Iteration 60
Iteration 70
Iteration 80
Iteration 90
Iteration 100
Iteration 110
Iteration 120
Iteration 130
Iteration 140
Iteration 150
Iteration 160
Iteration 170
Iteration 180
Iteration 190
Iteration 200
Iteration 210
Iteration 220
Iteration 230
Iteration 240
Iteration 250
Iteration 260
Iteration 270
Iteration 280
Iteration 290
Displacement smoothed in = 1 s


Moving mesh ...

Iteration 0
Moving mesh using displacement scaling : min:1 max:1
Checking faces in error :
    non-orthogonality > 65  degrees                        : 0
    faces with face pyramid volume < 1e-13                 : 0
    faces with face-decomposition tet quality < 1e-15      : 0
    faces with concavity > 80  degrees                     : 0
    faces with skewness > 4   (internal) or 20  (boundary) : 0
    faces with interpolation weights (0..1)  < 0.05        : 0
    faces with volume ratio of neighbour cells < 0.01      : 0
    faces with face twist < 0.02                           : 0
    faces on cells with determinant < 0.001                : 0
Successfully moved mesh
Moved mesh in = 0.22 s



Morph iteration 2
-----------------
Calculating patchDisplacement as distance to nearest surface point ...
    non-zone points : attract to nearest of all non-zone surfaces
    zone points     : attract to zone surface only

Wanted displacement : average:5.4175e-05 min:0 max:0.000142566
Calculated surface displacement in = 0 s


Detecting near surfaces ...
Overriding nearest with intersection of close gaps at 0 out of 3312 points.
Overriding displacement on features :
   implicit features    : true
   explicit features    : false
   multi-patch features : true

Attraction:
    linear   : max:(0.00010081 0.00010081 0) avg:(1.63641e-05 1.73018e-05 7.33277e-21)
    feature  : max:(0.00010081 0.00010081 -0) avg:(1.57147e-05 1.76188e-05 -4.61256e-20)
Feature analysis : total master points :3312 of which attracted to :
    feature point   : 8
    feature edge    : 316
    nearest surface : 2988
    rest            : 0

--> FOAM Warning : Displacement (8.51964e-08 -8.37002e-07 0) at mesh point 95075 coord (0.0490625 0.00301263 0) points through the surrounding patch faces
Smoothing displacement ...
Iteration 0
Iteration 10
Iteration 20
Iteration 30
Iteration 40
Iteration 50
Iteration 60
Iteration 70
Iteration 80
Iteration 90
Iteration 100
Iteration 110
Iteration 120
Iteration 130
Iteration 140
Iteration 150
Iteration 160
Iteration 170
Iteration 180
Iteration 190
Iteration 200
Iteration 210
Iteration 220
Iteration 230
Iteration 240
Iteration 250
Iteration 260
Iteration 270
Iteration 280
Iteration 290
Displacement smoothed in = 0.78 s


Moving mesh ...

Iteration 0
Moving mesh using displacement scaling : min:1 max:1
Checking faces in error :
    non-orthogonality > 65  degrees                        : 0
    faces with face pyramid volume < 1e-13                 : 0
    faces with face-decomposition tet quality < 1e-15      : 0
    faces with concavity > 80  degrees                     : 0
    faces with skewness > 4   (internal) or 20  (boundary) : 0
    faces with interpolation weights (0..1)  < 0.05        : 0
    faces with volume ratio of neighbour cells < 0.01      : 0
    faces with face twist < 0.02                           : 0
    faces on cells with determinant < 0.001                : 0
Successfully moved mesh
Moved mesh in = 0.12 s



Morph iteration 3
-----------------
Calculating patchDisplacement as distance to nearest surface point ...
    non-zone points : attract to nearest of all non-zone surfaces
    zone points     : attract to zone surface only

Wanted displacement : average:5.08054e-05 min:0 max:0.000137775
Calculated surface displacement in = 0 s


Detecting near surfaces ...
Overriding nearest with intersection of close gaps at 0 out of 3312 points.
Overriding displacement on features :
   implicit features    : true
   explicit features    : false
   multi-patch features : true

Attraction:
    linear   : max:(9.74217e-05 9.74217e-05 0) avg:(1.46633e-05 1.57113e-05 7.33277e-21)
    feature  : max:(9.74217e-05 9.74217e-05 -0) avg:(1.40204e-05 1.60251e-05 -5.47509e-20)
Feature analysis : total master points :3312 of which attracted to :
    feature point   : 8
    feature edge    : 316
    nearest surface : 2988
    rest            : 0

--> FOAM Warning : Displacement (1.49946e-07 -1.47312e-06 0) at mesh point 95075 coord (0.0490626 0.0030118 0) points through the surrounding patch faces
Smoothing displacement ...
Iteration 0
Iteration 10
Iteration 20
Iteration 30
Iteration 40
Iteration 50
Iteration 60
Iteration 70
Iteration 80
Iteration 90
Iteration 100
Iteration 110
Iteration 120
Iteration 130
Iteration 140
Iteration 150
Iteration 160
Iteration 170
Iteration 180
Iteration 190
Iteration 200
Iteration 210
Iteration 220
Iteration 230
Iteration 240
Iteration 250
Iteration 260
Iteration 270
Iteration 280
Iteration 290
Displacement smoothed in = 0.48 s


Moving mesh ...

Iteration 0
Moving mesh using displacement scaling : min:1 max:1
Checking faces in error :
    non-orthogonality > 65  degrees                        : 0
    faces with face pyramid volume < 1e-13                 : 0
    faces with face-decomposition tet quality < 1e-15      : 0
    faces with concavity > 80  degrees                     : 0
    faces with skewness > 4   (internal) or 20  (boundary) : 0
    faces with interpolation weights (0..1)  < 0.05        : 0
    faces with volume ratio of neighbour cells < 0.01      : 0
    faces with face twist < 0.02                           : 0
    faces on cells with determinant < 0.001                : 0
Successfully moved mesh
Moved mesh in = 0.11 s



Morph iteration 4
-----------------
Calculating patchDisplacement as distance to nearest surface point ...
    non-zone points : attract to nearest of all non-zone surfaces
    zone points     : attract to zone surface only

Wanted displacement : average:4.66562e-05 min:0 max:0.000132884
Calculated surface displacement in = 0 s


Detecting near surfaces ...
Overriding nearest with intersection of close gaps at 0 out of 3312 points.
Overriding displacement on features :
   implicit features    : true
   explicit features    : false
   multi-patch features : true

Attraction:
    linear   : max:(9.39631e-05 9.39631e-05 0) avg:(1.26308e-05 1.37875e-05 7.33277e-21)
    feature  : max:(9.39631e-05 9.39631e-05 -0) avg:(1.19994e-05 1.40957e-05 -4.88712e-20)
Feature analysis : total master points :3312 of which attracted to :
    feature point   : 8
    feature edge    : 316
    nearest surface : 2988
    rest            : 0

--> FOAM Warning : Displacement (2.30125e-07 -2.26083e-06 0) at mesh point 95075 coord (0.0490628 0.00301032 0) points through the surrounding patch faces
Smoothing displacement ...
Iteration 0
Iteration 10
Iteration 20
Iteration 30
Iteration 40
Iteration 50
Iteration 60
Iteration 70
Iteration 80
Iteration 90
Iteration 100
Iteration 110
Iteration 120
Iteration 130
Iteration 140
Iteration 150
Iteration 160
Iteration 170
Iteration 180
Iteration 190
Iteration 200
Iteration 210
Iteration 220
Iteration 230
Iteration 240
Iteration 250
Iteration 260
Iteration 270
Iteration 280
Iteration 290
Displacement smoothed in = 0.82 s


Moving mesh ...

Iteration 0
Moving mesh using displacement scaling : min:1 max:1
Checking faces in error :
    non-orthogonality > 65  degrees                        : 0
    faces with face pyramid volume < 1e-13                 : 0
    faces with face-decomposition tet quality < 1e-15      : 0
    faces with concavity > 80  degrees                     : 0
    faces with skewness > 4   (internal) or 20  (boundary) : 0
    faces with interpolation weights (0..1)  < 0.05        : 0
    faces with volume ratio of neighbour cells < 0.01      : 0
    faces with face twist < 0.02                           : 0
    faces on cells with determinant < 0.001                : 0
Successfully moved mesh
Moved mesh in = 0.22 s



Morph iteration 5
-----------------
Calculating patchDisplacement as distance to nearest surface point ...
    non-zone points : attract to nearest of all non-zone surfaces
    zone points     : attract to zone surface only

Wanted displacement : average:4.19963e-05 min:0 max:0.000126556
Calculated surface displacement in = 0 s


Detecting near surfaces ...
Overriding nearest with intersection of close gaps at 0 out of 3312 points.
Overriding displacement on features :
   implicit features    : true
   explicit features    : false
   multi-patch features : true

Attraction:
    linear   : max:(8.94885e-05 8.94885e-05 0) avg:(1.04404e-05 1.16813e-05 7.33277e-21)
    feature  : max:(8.94885e-05 8.94885e-05 -0) avg:(9.82643e-06 1.19809e-05 -4.65825e-20)
Feature analysis : total master points :3312 of which attracted to :
    feature point   : 8
    feature edge    : 316
    nearest surface : 2988
    rest            : 0

--> FOAM Warning : Displacement (3.22175e-07 -3.16517e-06 0) at mesh point 95075 coord (0.049063 0.00300806 0) points through the surrounding patch faces
Smoothing displacement ...
Iteration 0
Iteration 10
Iteration 20
Iteration 30
Iteration 40
Iteration 50
Iteration 60
Iteration 70
Iteration 80
Iteration 90
Iteration 100
Iteration 110
Iteration 120
Iteration 130
Iteration 140
Iteration 150
Iteration 160
Iteration 170
Iteration 180
Iteration 190
Iteration 200
Iteration 210
Iteration 220
Iteration 230
Iteration 240
Iteration 250
Iteration 260
Iteration 270
Iteration 280
Iteration 290
Displacement smoothed in = 1 s


Moving mesh ...

Iteration 0
Moving mesh using displacement scaling : min:1 max:1
Checking faces in error :
    non-orthogonality > 65  degrees                        : 0
    faces with face pyramid volume < 1e-13                 : 0
    faces with face-decomposition tet quality < 1e-15      : 0
    faces with concavity > 80  degrees                     : 0
    faces with skewness > 4   (internal) or 20  (boundary) : 0
    faces with interpolation weights (0..1)  < 0.05        : 0
    faces with volume ratio of neighbour cells < 0.01      : 0
    faces with face twist < 0.02                           : 0
    faces on cells with determinant < 0.001                : 0
Successfully moved mesh
Moved mesh in = 0.23 s



Morph iteration 6
-----------------
Calculating patchDisplacement as distance to nearest surface point ...
    non-zone points : attract to nearest of all non-zone surfaces
    zone points     : attract to zone surface only

Wanted displacement : average:3.7066e-05 min:0 max:0.000118821
Calculated surface displacement in = 0 s


Detecting near surfaces ...
Overriding nearest with intersection of close gaps at 0 out of 3312 points.
Overriding displacement on features :
   implicit features    : true
   explicit features    : false
   multi-patch features : true

Attraction:
    linear   : max:(8.40195e-05 8.40195e-05 0) avg:(8.26491e-06 9.5459e-06 7.33277e-21)
    feature  : max:(8.40195e-05 8.40195e-05 -0) avg:(7.67554e-06 9.8336e-06 -4.55892e-20)
Feature analysis : total master points :3312 of which attracted to :
    feature point   : 8
    feature edge    : 316
    nearest surface : 2988
    rest            : 0

--> FOAM Warning : Displacement (4.20975e-07 -4.13582e-06 0) at mesh point 95075 coord (0.0490633 0.0030049 0) points through the surrounding patch faces
Smoothing displacement ...
Iteration 0
Iteration 10
Iteration 20
Iteration 30
Iteration 40
Iteration 50
Iteration 60
Iteration 70
Iteration 80
Iteration 90
Iteration 100
Iteration 110
Iteration 120
Iteration 130
Iteration 140
Iteration 150
Iteration 160
Iteration 170
Iteration 180
Iteration 190
Iteration 200
Iteration 210
Iteration 220
Iteration 230
Iteration 240
Iteration 250
Iteration 260
Iteration 270
Iteration 280
Iteration 290
Displacement smoothed in = 1 s


Moving mesh ...

Iteration 0
Moving mesh using displacement scaling : min:1 max:1
Checking faces in error :
    non-orthogonality > 65  degrees                        : 0
    faces with face pyramid volume < 1e-13                 : 0
    faces with face-decomposition tet quality < 1e-15      : 0
    faces with concavity > 80  degrees                     : 0
    faces with skewness > 4   (internal) or 20  (boundary) : 0
    faces with interpolation weights (0..1)  < 0.05        : 0
    faces with volume ratio of neighbour cells < 0.01      : 0
    faces with face twist < 0.02                           : 0
    faces on cells with determinant < 0.001                : 0
Successfully moved mesh
Moved mesh in = 0.23 s



Morph iteration 7
-----------------
Calculating patchDisplacement as distance to nearest surface point ...
    non-zone points : attract to nearest of all non-zone surfaces
    zone points     : attract to zone surface only

Wanted displacement : average:3.20815e-05 min:0 max:0.000109772
Calculated surface displacement in = 0 s


Detecting near surfaces ...
Overriding nearest with intersection of close gaps at 0 out of 3312 points.
Overriding displacement on features :
   implicit features    : true
   explicit features    : false
   multi-patch features : true

Attraction:
    linear   : max:(7.76205e-05 7.76205e-05 0) avg:(6.2536e-06 7.51731e-06 7.33277e-21)
    feature  : max:(-5.32991e-05 9.86222e-05 0) avg:(5.69631e-06 7.78934e-06 -5.81411e-20)
Feature analysis : total master points :3312 of which attracted to :
    feature point   : 8
    feature edge    : 316
    nearest surface : 2988
    rest            : 0

--> FOAM Warning : Displacement (5.19909e-07 -5.10778e-06 0) at mesh point 95075 coord (0.0490638 0.00300076 0) points through the surrounding patch faces
Smoothing displacement ...
Iteration 0
Iteration 10
Iteration 20
Iteration 30
Iteration 40
Iteration 50
Iteration 60
Iteration 70
Iteration 80
Iteration 90
Iteration 100
Iteration 110
Iteration 120
Iteration 130
Iteration 140
Iteration 150
Iteration 160
Iteration 170
Iteration 180
Iteration 190
Iteration 200
Iteration 210
Iteration 220
Iteration 230
Iteration 240
Iteration 250
Iteration 260
Iteration 270
Iteration 280
Iteration 290
Displacement smoothed in = 1 s


Moving mesh ...

Iteration 0
Moving mesh using displacement scaling : min:1 max:1
Checking faces in error :
    non-orthogonality > 65  degrees                        : 0
    faces with face pyramid volume < 1e-13                 : 0
    faces with face-decomposition tet quality < 1e-15      : 0
    faces with concavity > 80  degrees                     : 0
    faces with skewness > 4   (internal) or 20  (boundary) : 0
    faces with interpolation weights (0..1)  < 0.05        : 0
    faces with volume ratio of neighbour cells < 0.01      : 0
    faces with face twist < 0.02                           : 0
    faces on cells with determinant < 0.001                : 0
Successfully moved mesh
Moved mesh in = 0.23 s



Morph iteration 8
-----------------
Calculating patchDisplacement as distance to nearest surface point ...
    non-zone points : attract to nearest of all non-zone surfaces
    zone points     : attract to zone surface only

Wanted displacement : average:2.72382e-05 min:0 max:9.95671e-05
Calculated surface displacement in = 0 s


Detecting near surfaces ...
Overriding nearest with intersection of close gaps at 0 out of 3312 points.
Overriding displacement on features :
   implicit features    : true
   explicit features    : false
   multi-patch features : true

Attraction:
    linear   : max:(7.04046e-05 7.04046e-05 0) avg:(4.51445e-06 5.69912e-06 7.33277e-21)
    feature  : max:(-4.95089e-05 9.16091e-05 -3.46945e-18) avg:(3.99679e-06 5.95181e-06 -3.87419e-20)
Feature analysis : total master points :3312 of which attracted to :
    feature point   : 8
    feature edge    : 316
    nearest surface : 2988
    rest            : 0

--> FOAM Warning : Displacement (6.11218e-07 -6.00484e-06 0) at mesh point 95075 coord (0.0490643 0.00299565 0) points through the surrounding patch faces
Smoothing displacement ...
Iteration 0
Iteration 10
Iteration 20
Iteration 30
Iteration 40
Iteration 50
Iteration 60
Iteration 70
Iteration 80
Iteration 90
Iteration 100
Iteration 110
Iteration 120
Iteration 130
Iteration 140
Iteration 150
Iteration 160
Iteration 170
Iteration 180
Iteration 190
Iteration 200
Iteration 210
Iteration 220
Iteration 230
Iteration 240
Iteration 250
Iteration 260
Iteration 270
Iteration 280
Iteration 290
Displacement smoothed in = 1.01 s


Moving mesh ...

Iteration 0
Moving mesh using displacement scaling : min:1 max:1
Checking faces in error :
    non-orthogonality > 65  degrees                        : 0
    faces with face pyramid volume < 1e-13                 : 0
    faces with face-decomposition tet quality < 1e-15      : 0
    faces with concavity > 80  degrees                     : 0
    faces with skewness > 4   (internal) or 20  (boundary) : 0
    faces with interpolation weights (0..1)  < 0.05        : 0
    faces with volume ratio of neighbour cells < 0.01      : 0
    faces with face twist < 0.02                           : 0
    faces on cells with determinant < 0.001                : 0
Successfully moved mesh
Moved mesh in = 0.22 s



Morph iteration 9
-----------------
Calculating patchDisplacement as distance to nearest surface point ...
    non-zone points : attract to nearest of all non-zone surfaces
    zone points     : attract to zone surface only

Wanted displacement : average:2.27701e-05 min:0 max:8.8445e-05
Calculated surface displacement in = 0 s


Detecting near surfaces ...
Overriding nearest with intersection of close gaps at 0 out of 3312 points.
Overriding displacement on features :
   implicit features    : true
   explicit features    : false
   multi-patch features : true

Attraction:
    linear   : max:(6.254e-05 6.254e-05 0) avg:(3.10606e-06 4.15514e-06 7.33277e-21)
    feature  : max:(-4.50531e-05 8.33643e-05 0) avg:(2.635e-06 4.38509e-06 -4.2473e-20)
Feature analysis : total master points :3312 of which attracted to :
    feature point   : 8
    feature edge    : 316
    nearest surface : 2988
    rest            : 0

--> FOAM Warning : Displacement (6.86677e-07 -6.74618e-06 0) at mesh point 95075 coord (0.0490649 0.00298965 0) points through the surrounding patch faces
Smoothing displacement ...
Iteration 0
Iteration 10
Iteration 20
Iteration 30
Iteration 40
Iteration 50
Iteration 60
Iteration 70
Iteration 80
Iteration 90
Iteration 100
Iteration 110
Iteration 120
Iteration 130
Iteration 140
Iteration 150
Iteration 160
Iteration 170
Iteration 180
Iteration 190
Iteration 200
Iteration 210
Iteration 220
Iteration 230
Iteration 240
Iteration 250
Iteration 260
Iteration 270
Iteration 280
Iteration 290
Displacement smoothed in = 1.01 s


Moving mesh ...

Iteration 0
Moving mesh using displacement scaling : min:1 max:1
Checking faces in error :
    non-orthogonality > 65  degrees                        : 0
    faces with face pyramid volume < 1e-13                 : 0
    faces with face-decomposition tet quality < 1e-15      : 0
    faces with concavity > 80  degrees                     : 0
    faces with skewness > 4   (internal) or 20  (boundary) : 0
    faces with interpolation weights (0..1)  < 0.05        : 0
    faces with volume ratio of neighbour cells < 0.01      : 0
    faces with face twist < 0.02                           : 0
    faces on cells with determinant < 0.001                : 0
Successfully moved mesh
Moved mesh in = 0.23 s



Morph iteration 10
-----------------
Calculating patchDisplacement as distance to nearest surface point ...
    non-zone points : attract to nearest of all non-zone surfaces
    zone points     : attract to zone surface only

Wanted displacement : average:1.91292e-05 min:0 max:7.84436e-05
Calculated surface displacement in = 0 s


Detecting near surfaces ...
Overriding nearest with intersection of close gaps at 0 out of 3312 points.
Overriding displacement on features :
   implicit features    : true
   explicit features    : false
   multi-patch features : true

Attraction:
    linear   : max:(5.5468e-05 5.5468e-05 0) avg:(2.03874e-06 2.90944e-06 7.33277e-21)
    feature  : max:(-4.00472e-05 7.41016e-05 0) avg:(1.62002e-06 3.11384e-06 -5.05684e-20)
Feature analysis : total master points :3312 of which attracted to :
    feature point   : 8
    feature edge    : 316
    nearest surface : 2988
    rest            : 0

--> FOAM Warning : Displacement (7.38559e-07 -7.25589e-06 0) at mesh point 95075 coord (0.0490656 0.0029829 0) points through the surrounding patch faces
Smoothing displacement ...
Iteration 0
Iteration 10
Iteration 20
Iteration 30
Iteration 40
Iteration 50
Iteration 60
Iteration 70
Iteration 80
Iteration 90
Iteration 100
Iteration 110
Iteration 120
Iteration 130
Iteration 140
Iteration 150
Iteration 160
Iteration 170
Iteration 180
Iteration 190
Iteration 200
Iteration 210
Iteration 220
Iteration 230
Iteration 240
Iteration 250
Iteration 260
Iteration 270
Iteration 280
Iteration 290
Displacement smoothed in = 1.01 s


Moving mesh ...

Iteration 0
Moving mesh using displacement scaling : min:1 max:1
Checking faces in error :
    non-orthogonality > 65  degrees                        : 0
    faces with face pyramid volume < 1e-13                 : 0
    faces with face-decomposition tet quality < 1e-15      : 0
    faces with concavity > 80  degrees                     : 0
    faces with skewness > 4   (internal) or 20  (boundary) : 0
    faces with interpolation weights (0..1)  < 0.05        : 0
    faces with volume ratio of neighbour cells < 0.01      : 0
    faces with face twist < 0.02                           : 0
    faces on cells with determinant < 0.001                : 0
Successfully moved mesh
Moved mesh in = 0.22 s



Morph iteration 11
-----------------
Calculating patchDisplacement as distance to nearest surface point ...
    non-zone points : attract to nearest of all non-zone surfaces
    zone points     : attract to zone surface only

Wanted displacement : average:1.59748e-05 min:0 max:6.76992e-05
Calculated surface displacement in = 0 s


Detecting near surfaces ...
Overriding nearest with intersection of close gaps at 0 out of 3312 points.
Overriding displacement on features :
   implicit features    : true
   explicit features    : false
   multi-patch features : true

Attraction:
    linear   : max:(4.78706e-05 4.78706e-05 0) avg:(1.28352e-06 1.95277e-06 7.33277e-21)
    feature  : max:(-3.46631e-05 6.4139e-05 0) avg:(9.21088e-07 2.12969e-06 -5.43177e-20)
Feature analysis : total master points :3312 of which attracted to :
    feature point   : 8
    feature edge    : 316
    nearest surface : 2988
    rest            : 0

--> FOAM Warning : Displacement (7.60777e-07 -7.47416e-06 0) at mesh point 95075 coord (0.0490663 0.00297565 0) points through the surrounding patch faces
Smoothing displacement ...
Iteration 0
Iteration 10
Iteration 20
Iteration 30
Iteration 40
Iteration 50
Iteration 60
Iteration 70
Iteration 80
Iteration 90
Iteration 100
Iteration 110
Iteration 120
Iteration 130
Iteration 140
Iteration 150
Iteration 160
Iteration 170
Iteration 180
Iteration 190
Iteration 200
Iteration 210
Iteration 220
Iteration 230
Iteration 240
Iteration 250
Iteration 260
Iteration 270
Iteration 280
Iteration 290
Displacement smoothed in = 1.01 s


Moving mesh ...

Iteration 0
Moving mesh using displacement scaling : min:1 max:1
Checking faces in error :
    non-orthogonality > 65  degrees                        : 0
    faces with face pyramid volume < 1e-13                 : 0
    faces with face-decomposition tet quality < 1e-15      : 0
    faces with concavity > 80  degrees                     : 0
    faces with skewness > 4   (internal) or 20  (boundary) : 0
    faces with interpolation weights (0..1)  < 0.05        : 0
    faces with volume ratio of neighbour cells < 0.01      : 0
    faces with face twist < 0.02                           : 0
    faces on cells with determinant < 0.001                : 0
Successfully moved mesh
Moved mesh in = 0.24 s



Morph iteration 12
-----------------
Calculating patchDisplacement as distance to nearest surface point ...
    non-zone points : attract to nearest of all non-zone surfaces
    zone points     : attract to zone surface only

Wanted displacement : average:1.30505e-05 min:0 max:5.66036e-05
Calculated surface displacement in = 0 s


Detecting near surfaces ...
Overriding nearest with intersection of close gaps at 0 out of 3312 points.
Overriding displacement on features :
   implicit features    : true
   explicit features    : false
   multi-patch features : true

Attraction:
    linear   : max:(4.00248e-05 4.00248e-05 0) avg:(7.85985e-07 1.25266e-06 7.33277e-21)
    feature  : max:(-2.9117e-05 5.38768e-05 -3.46945e-18) avg:(4.81543e-07 1.40127e-06 -4.58762e-20)
Feature analysis : total master points :3312 of which attracted to :
    feature point   : 8
    feature edge    : 316
    nearest surface : 2988
    rest            : 0

--> FOAM Warning : Displacement (7.49999e-07 -7.36828e-06 0) at mesh point 95075 coord (0.0490671 0.00296817 0) points through the surrounding patch faces
Smoothing displacement ...
Iteration 0
Iteration 10
Iteration 20
Iteration 30
Iteration 40
Iteration 50
Iteration 60
Iteration 70
Iteration 80
Iteration 90
Iteration 100
Iteration 110
Iteration 120
Iteration 130
Iteration 140
Iteration 150
Iteration 160
Iteration 170
Iteration 180
Iteration 190
Iteration 200
Iteration 210
Iteration 220
Iteration 230
Iteration 240
Iteration 250
Iteration 260
Iteration 270
Iteration 280
Iteration 290
Displacement smoothed in = 1.01 s


Moving mesh ...

Iteration 0
Moving mesh using displacement scaling : min:1 max:1
Checking faces in error :
    non-orthogonality > 65  degrees                        : 0
    faces with face pyramid volume < 1e-13                 : 0
    faces with face-decomposition tet quality < 1e-15      : 0
    faces with concavity > 80  degrees                     : 0
    faces with skewness > 4   (internal) or 20  (boundary) : 0
    faces with interpolation weights (0..1)  < 0.05        : 0
    faces with volume ratio of neighbour cells < 0.01      : 0
    faces with face twist < 0.02                           : 0
    faces on cells with determinant < 0.001                : 0
Successfully moved mesh
Moved mesh in = 0.22 s



Morph iteration 13
-----------------
Calculating patchDisplacement as distance to nearest surface point ...
    non-zone points : attract to nearest of all non-zone surfaces
    zone points     : attract to zone surface only

Wanted displacement : average:1.04034e-05 min:0 max:4.56558e-05
Calculated surface displacement in = 0 s


Detecting near surfaces ...
Overriding nearest with intersection of close gaps at 0 out of 3312 points.
Overriding displacement on features :
   implicit features    : true
   explicit features    : false
   multi-patch features : true

Attraction:
    linear   : max:(3.22836e-05 3.22836e-05 0) avg:(4.81187e-07 7.64359e-07 7.33277e-21)
    feature  : max:(-2.36495e-05 4.37599e-05 -3.46945e-18) avg:(2.33912e-07 8.85063e-07 -6.02136e-20)
Feature analysis : total master points :3312 of which attracted to :
    feature point   : 8
    feature edge    : 316
    nearest surface : 2988
    rest            : 0

--> FOAM Warning : Displacement (7.06489e-07 -6.94081e-06 0) at mesh point 95075 coord (0.0490678 0.0029608 0) points through the surrounding patch faces
Smoothing displacement ...
Iteration 0
Iteration 10
Iteration 20
Iteration 30
Iteration 40
Iteration 50
Iteration 60
Iteration 70
Iteration 80
Iteration 90
Iteration 100
Iteration 110
Iteration 120
Iteration 130
Iteration 140
Iteration 150
Iteration 160
Iteration 170
Iteration 180
Iteration 190
Iteration 200
Iteration 210
Iteration 220
Iteration 230
Iteration 240
Iteration 250
Iteration 260
Iteration 270
Iteration 280
Iteration 290
Displacement smoothed in = 1.02 s


Moving mesh ...

Iteration 0
Moving mesh using displacement scaling : min:1 max:1
Checking faces in error :
    non-orthogonality > 65  degrees                        : 0
    faces with face pyramid volume < 1e-13                 : 0
    faces with face-decomposition tet quality < 1e-15      : 0
    faces with concavity > 80  degrees                     : 0
    faces with skewness > 4   (internal) or 20  (boundary) : 0
    faces with interpolation weights (0..1)  < 0.05        : 0
    faces with volume ratio of neighbour cells < 0.01      : 0
    faces with face twist < 0.02                           : 0
    faces on cells with determinant < 0.001                : 0
Successfully moved mesh
Moved mesh in = 0.22 s



Morph iteration 14
-----------------
Calculating patchDisplacement as distance to nearest surface point ...
    non-zone points : attract to nearest of all non-zone surfaces
    zone points     : attract to zone surface only

Wanted displacement : average:8.0939e-06 min:0 max:3.56663e-05
Calculated surface displacement in = 0 s


Detecting near surfaces ...
Overriding nearest with intersection of close gaps at 0 out of 3312 points.
Overriding displacement on features :
   implicit features    : true
   explicit features    : false
   multi-patch features : true

Attraction:
    linear   : max:(2.52199e-05 2.52199e-05 0) avg:(3.06416e-07 4.40205e-07 7.33277e-21)
    feature  : max:(-1.84991e-05 3.423e-05 -3.46945e-18) avg:(1.12992e-07 5.34622e-07 -5.68868e-20)
Feature analysis : total master points :3312 of which attracted to :
    feature point   : 8
    feature edge    : 316
    nearest surface : 2988
    rest            : 0

--> FOAM Warning : Displacement (6.34398e-07 -6.23257e-06 0) at mesh point 95075 coord (0.0490685 0.00295386 0) points through the surrounding patch faces
Smoothing displacement ...
Iteration 0
Iteration 10
Iteration 20
Iteration 30
Iteration 40
Iteration 50
Iteration 60
Iteration 70
Iteration 80
Iteration 90
Iteration 100
Iteration 110
Iteration 120
Iteration 130
Iteration 140
Iteration 150
Iteration 160
Iteration 170
Iteration 180
Iteration 190
Iteration 200
Iteration 210
Iteration 220
Iteration 230
Iteration 240
Iteration 250
Iteration 260
Iteration 270
Iteration 280
Iteration 290
Displacement smoothed in = 1.01 s


Moving mesh ...

Iteration 0
Moving mesh using displacement scaling : min:1 max:1
Checking faces in error :
    non-orthogonality > 65  degrees                        : 0
    faces with face pyramid volume < 1e-13                 : 0
    faces with face-decomposition tet quality < 1e-15      : 0
    faces with concavity > 80  degrees                     : 0
    faces with skewness > 4   (internal) or 20  (boundary) : 0
    faces with interpolation weights (0..1)  < 0.05        : 0
    faces with volume ratio of neighbour cells < 0.01      : 0
    faces with face twist < 0.02                           : 0
    faces on cells with determinant < 0.001                : 0
Successfully moved mesh
Moved mesh in = 0.24 s



Morph iteration 15
-----------------
Calculating patchDisplacement as distance to nearest surface point ...
    non-zone points : attract to nearest of all non-zone surfaces
    zone points     : attract to zone surface only

Wanted displacement : average:6.10472e-06 min:0 max:2.96662e-05
Calculated surface displacement in = 0 s


Detecting near surfaces ...
Overriding nearest with intersection of close gaps at 0 out of 3312 points.
Overriding displacement on features :
   implicit features    : true
   explicit features    : false
   multi-patch features : true

Attraction:
    linear   : max:(2.09772e-05 -2.09772e-05 0) avg:(2.09858e-07 2.36135e-07 7.33277e-21)
    feature  : max:(2.09772e-05 -2.09772e-05 -0) avg:(6.47899e-08 3.06948e-07 -3.91055e-20)
Feature analysis : total master points :3312 of which attracted to :
    feature point   : 8
    feature edge    : 316
    nearest surface : 2988
    rest            : 0

--> FOAM Warning : Displacement (5.41353e-07 -5.31846e-06 0) at mesh point 95075 coord (0.0490692 0.00294763 0) points through the surrounding patch faces
Smoothing displacement ...
Iteration 0
Iteration 10
Iteration 20
Iteration 30
Iteration 40
Iteration 50
Iteration 60
Iteration 70
Iteration 80
Iteration 90
Iteration 100
Iteration 110
Iteration 120
Iteration 130
Iteration 140
Iteration 150
Iteration 160
Iteration 170
Iteration 180
Iteration 190
Iteration 200
Iteration 210
Iteration 220
Iteration 230
Iteration 240
Iteration 250
Iteration 260
Iteration 270
Iteration 280
Iteration 290
Displacement smoothed in = 0.66 s


Moving mesh ...

Iteration 0
Moving mesh using displacement scaling : min:1 max:1
Checking faces in error :
    non-orthogonality > 65  degrees                        : 0
    faces with face pyramid volume < 1e-13                 : 0
    faces with face-decomposition tet quality < 1e-15      : 0
    faces with concavity > 80  degrees                     : 0
    faces with skewness > 4   (internal) or 20  (boundary) : 0
    faces with interpolation weights (0..1)  < 0.05        : 0
    faces with volume ratio of neighbour cells < 0.01      : 0
    faces with face twist < 0.02                           : 0
    faces on cells with determinant < 0.001                : 0
Successfully moved mesh
Moved mesh in = 0.22 s



Morph iteration 16
-----------------
Calculating patchDisplacement as distance to nearest surface point ...
    non-zone points : attract to nearest of all non-zone surfaces
    zone points     : attract to zone surface only

Wanted displacement : average:4.41991e-06 min:0 max:2.49473e-05
Calculated surface displacement in = 0 s


Detecting near surfaces ...
Overriding nearest with intersection of close gaps at 0 out of 3312 points.
Overriding displacement on features :
   implicit features    : true
   explicit features    : false
   multi-patch features : true

Attraction:
    linear   : max:(1.76404e-05 -1.76404e-05 0) avg:(1.5448e-07 1.15191e-07 7.33277e-21)
    feature  : max:(1.76404e-05 -1.76404e-05 -0) avg:(5.06763e-08 1.65862e-07 -4.23799e-20)
Feature analysis : total master points :3312 of which attracted to :
    feature point   : 8
    feature edge    : 316
    nearest surface : 2988
    rest            : 0

--> FOAM Warning : Displacement (4.37302e-07 -4.29622e-06 0) at mesh point 95075 coord (0.0490697 0.00294231 0) points through the surrounding patch faces
Smoothing displacement ...
Iteration 0
Iteration 10
Iteration 20
Iteration 30
Iteration 40
Iteration 50
Iteration 60
Iteration 70
Iteration 80
Iteration 90
Iteration 100
Iteration 110
Iteration 120
Iteration 130
Iteration 140
Iteration 150
Iteration 160
Iteration 170
Iteration 180
Iteration 190
Iteration 200
Iteration 210
Iteration 220
Iteration 230
Iteration 240
Iteration 250
Iteration 260
Iteration 270
Iteration 280
Iteration 290
Displacement smoothed in = 0.73 s


Moving mesh ...

Iteration 0
Moving mesh using displacement scaling : min:1 max:1
Checking faces in error :
    non-orthogonality > 65  degrees                        : 0
    faces with face pyramid volume < 1e-13                 : 0
    faces with face-decomposition tet quality < 1e-15      : 0
    faces with concavity > 80  degrees                     : 0
    faces with skewness > 4   (internal) or 20  (boundary) : 0
    faces with interpolation weights (0..1)  < 0.05        : 0
    faces with volume ratio of neighbour cells < 0.01      : 0
    faces with face twist < 0.02                           : 0
    faces on cells with determinant < 0.001                : 0
Successfully moved mesh
Moved mesh in = 0.11 s



Morph iteration 17
-----------------
Calculating patchDisplacement as distance to nearest surface point ...
    non-zone points : attract to nearest of all non-zone surfaces
    zone points     : attract to zone surface only

Wanted displacement : average:3.05626e-06 min:0 max:1.97823e-05
Calculated surface displacement in = 0 s


Detecting near surfaces ...
Overriding nearest with intersection of close gaps at 0 out of 3312 points.
Overriding displacement on features :
   implicit features    : true
   explicit features    : false
   multi-patch features : true

Attraction:
    linear   : max:(1.39882e-05 -1.39882e-05 0) avg:(1.17774e-07 4.86064e-08 7.33277e-21)
    feature  : max:(1.39882e-05 -1.39882e-05 -0) avg:(4.73025e-08 8.30061e-08 -5.13786e-20)
Feature analysis : total master points :3312 of which attracted to :
    feature point   : 8
    feature edge    : 316
    nearest surface : 2988
    rest            : 0

--> FOAM Warning : Displacement (3.32834e-07 -3.26989e-06 0) at mesh point 95075 coord (0.0490701 0.00293802 0) points through the surrounding patch faces
Smoothing displacement ...
Iteration 0
Iteration 10
Iteration 20
Iteration 30
Iteration 40
Iteration 50
Iteration 60
Iteration 70
Iteration 80
Iteration 90
Iteration 100
Iteration 110
Iteration 120
Iteration 130
Iteration 140
Iteration 150
Iteration 160
Iteration 170
Iteration 180
Iteration 190
Iteration 200
Iteration 210
Iteration 220
Iteration 230
Iteration 240
Iteration 250
Iteration 260
Iteration 270
Iteration 280
Iteration 290
Displacement smoothed in = 0.48 s


Moving mesh ...

Iteration 0
Moving mesh using displacement scaling : min:1 max:1
Checking faces in error :
    non-orthogonality > 65  degrees                        : 0
    faces with face pyramid volume < 1e-13                 : 0
    faces with face-decomposition tet quality < 1e-15      : 0
    faces with concavity > 80  degrees                     : 0
    faces with skewness > 4   (internal) or 20  (boundary) : 0
    faces with interpolation weights (0..1)  < 0.05        : 0
    faces with volume ratio of neighbour cells < 0.01      : 0
    faces with face twist < 0.02                           : 0
    faces on cells with determinant < 0.001                : 0
Successfully moved mesh
Moved mesh in = 0.12 s



Morph iteration 18
-----------------
Calculating patchDisplacement as distance to nearest surface point ...
    non-zone points : attract to nearest of all non-zone surfaces
    zone points     : attract to zone surface only

Wanted displacement : average:2.00534e-06 min:0 max:1.47069e-05
Calculated surface displacement in = 0 s


Detecting near surfaces ...
Overriding nearest with intersection of close gaps at 0 out of 3312 points.
Overriding displacement on features :
   implicit features    : true
   explicit features    : false
   multi-patch features : true

Attraction:
    linear   : max:(1.03993e-05 -1.03993e-05 0) avg:(8.87268e-08 1.53825e-08 7.33277e-21)
    feature  : max:(1.03993e-05 -1.03993e-05 -0) avg:(4.36251e-08 3.73983e-08 -5.03925e-20)
Feature analysis : total master points :3312 of which attracted to :
    feature point   : 8
    feature edge    : 316
    nearest surface : 2988
    rest            : 0

--> FOAM Warning : Displacement (2.37339e-07 -2.33171e-06 0) at mesh point 95075 coord (0.0490705 0.00293475 0) points through the surrounding patch faces
Smoothing displacement ...
Iteration 0
Iteration 10
Iteration 20
Iteration 30
Iteration 40
Iteration 50
Iteration 60
Iteration 70
Iteration 80
Iteration 90
Iteration 100
Iteration 110
Iteration 120
Iteration 130
Iteration 140
Iteration 150
Iteration 160
Iteration 170
Iteration 180
Iteration 190
Iteration 200
Iteration 210
Iteration 220
Iteration 230
Iteration 240
Iteration 250
Iteration 260
Iteration 270
Iteration 280
Iteration 290
Displacement smoothed in = 0.64 s


Moving mesh ...

Iteration 0
Moving mesh using displacement scaling : min:1 max:1
Checking faces in error :
    non-orthogonality > 65  degrees                        : 0
    faces with face pyramid volume < 1e-13                 : 0
    faces with face-decomposition tet quality < 1e-15      : 0
    faces with concavity > 80  degrees                     : 0
    faces with skewness > 4   (internal) or 20  (boundary) : 0
    faces with interpolation weights (0..1)  < 0.05        : 0
    faces with volume ratio of neighbour cells < 0.01      : 0
    faces with face twist < 0.02                           : 0
    faces on cells with determinant < 0.001                : 0
Successfully moved mesh
Moved mesh in = 0.18 s



Morph iteration 19
-----------------
Calculating patchDisplacement as distance to nearest surface point ...
    non-zone points : attract to nearest of all non-zone surfaces
    zone points     : attract to zone surface only

Wanted displacement : average:1.24133e-06 min:0 max:1.01866e-05
Calculated surface displacement in = 0 s


Detecting near surfaces ...
Overriding nearest with intersection of close gaps at 0 out of 3312 points.
Overriding displacement on features :
   implicit features    : true
   explicit features    : false
   multi-patch features : true

Attraction:
    linear   : max:(7.20301e-06 -7.20301e-06 0) avg:(6.36927e-08 1.11373e-09 7.33277e-21)
    feature  : max:(7.20301e-06 -7.20301e-06 -0) avg:(3.66818e-08 1.42988e-08 -6.05488e-20)
Feature analysis : total master points :3312 of which attracted to :
    feature point   : 8
    feature edge    : 316
    nearest surface : 2988
    rest            : 0

--> FOAM Warning : Displacement (1.57496e-07 -1.5473e-06 0) at mesh point 95075 coord (0.0490707 0.00293241 0) points through the surrounding patch faces
Smoothing displacement ...
Iteration 0
Iteration 10
Iteration 20
Iteration 30
Iteration 40
Iteration 50
Iteration 60
Iteration 70
Iteration 80
Iteration 90
Iteration 100
Iteration 110
Iteration 120
Iteration 130
Iteration 140
Iteration 150
Iteration 160
Iteration 170
Iteration 180
Iteration 190
Iteration 200
Iteration 210
Iteration 220
Iteration 230
Iteration 240
Iteration 250
Iteration 260
Iteration 270
Iteration 280
Iteration 290
Displacement smoothed in = 0.81 s


Moving mesh ...

Iteration 0
Moving mesh using displacement scaling : min:1 max:1
Checking faces in error :
    non-orthogonality > 65  degrees                        : 0
    faces with face pyramid volume < 1e-13                 : 0
    faces with face-decomposition tet quality < 1e-15      : 0
    faces with concavity > 80  degrees                     : 0
    faces with skewness > 4   (internal) or 20  (boundary) : 0
    faces with interpolation weights (0..1)  < 0.05        : 0
    faces with volume ratio of neighbour cells < 0.01      : 0
    faces with face twist < 0.02                           : 0
    faces on cells with determinant < 0.001                : 0
Successfully moved mesh
Moved mesh in = 0.23 s



Morph iteration 20
-----------------
Calculating patchDisplacement as distance to nearest surface point ...
    non-zone points : attract to nearest of all non-zone surfaces
    zone points     : attract to zone surface only

Wanted displacement : average:7.17801e-07 min:0 max:6.52734e-06
Calculated surface displacement in = 0 s


Detecting near surfaces ...
Overriding nearest with intersection of close gaps at 0 out of 3312 points.
Overriding displacement on features :
   implicit features    : true
   explicit features    : false
   multi-patch features : true

Attraction:
    linear   : max:(4.61553e-06 -4.61553e-06 0) avg:(4.25596e-08 -3.43628e-09 7.33277e-21)
    feature  : max:(4.61553e-06 -4.61553e-06 -0) avg:(2.75536e-08 3.88874e-09 -3.38603e-20)
Feature analysis : total master points :3312 of which attracted to :
    feature point   : 8
    feature edge    : 316
    nearest surface : 2988
    rest            : 0

--> FOAM Warning : Displacement (9.64661e-08 -9.4772e-07 0) at mesh point 95075 coord (0.0490709 0.00293087 0) points through the surrounding patch faces
Smoothing displacement ...
Iteration 0
Iteration 10
Iteration 20
Iteration 30
Iteration 40
Iteration 50
Iteration 60
Iteration 70
Iteration 80
Iteration 90
Iteration 100
Iteration 110
Iteration 120
Iteration 130
Iteration 140
Iteration 150
Iteration 160
Iteration 170
Iteration 180
Iteration 190
Iteration 200
Iteration 210
Iteration 220
Iteration 230
Iteration 240
Iteration 250
Iteration 260
Iteration 270
Iteration 280
Iteration 290
Displacement smoothed in = 1.01 s


Moving mesh ...

Iteration 0
Moving mesh using displacement scaling : min:1 max:1
Checking faces in error :
    non-orthogonality > 65  degrees                        : 0
    faces with face pyramid volume < 1e-13                 : 0
    faces with face-decomposition tet quality < 1e-15      : 0
    faces with concavity > 80  degrees                     : 0
    faces with skewness > 4   (internal) or 20  (boundary) : 0
    faces with interpolation weights (0..1)  < 0.05        : 0
    faces with volume ratio of neighbour cells < 0.01      : 0
    faces with face twist < 0.02                           : 0
    faces on cells with determinant < 0.001                : 0
Successfully moved mesh
Moved mesh in = 0.12 s



Morph iteration 21
-----------------
Calculating patchDisplacement as distance to nearest surface point ...
    non-zone points : attract to nearest of all non-zone surfaces
    zone points     : attract to zone surface only

Wanted displacement : average:3.84458e-07 min:0 max:3.83646e-06
Calculated surface displacement in = 0 s


Detecting near surfaces ...
Overriding nearest with intersection of close gaps at 0 out of 3312 points.
Overriding displacement on features :
   implicit features    : true
   explicit features    : false
   multi-patch features : true

Attraction:
    linear   : max:(2.71278e-06 -2.71278e-06 0) avg:(2.60643e-08 -3.72584e-09 7.33277e-21)
    feature  : max:(2.71278e-06 -2.71278e-06 -0) avg:(1.84112e-08 9.91673e-12 -4.17303e-20)
Feature analysis : total master points :3312 of which attracted to :
    feature point   : 8
    feature edge    : 316
    nearest surface : 2988
    rest            : 0

--> FOAM Warning : Displacement (5.39948e-08 -5.30465e-07 0) at mesh point 95075 coord (0.049071 0.00292992 0) points through the surrounding patch faces
Smoothing displacement ...
Iteration 0
Iteration 10
Iteration 20
Iteration 30
Iteration 40
Iteration 50
Iteration 60
Iteration 70
Iteration 80
Iteration 90
Iteration 100
Iteration 110
Iteration 120
Iteration 130
Iteration 140
Iteration 150
Iteration 160
Iteration 170
Iteration 180
Iteration 190
Iteration 200
Iteration 210
Iteration 220
Iteration 230
Iteration 240
Iteration 250
Iteration 260
Iteration 270
Iteration 280
Iteration 290
Displacement smoothed in = 0.56 s


Moving mesh ...

Iteration 0
Moving mesh using displacement scaling : min:1 max:1
Checking faces in error :
    non-orthogonality > 65  degrees                        : 0
    faces with face pyramid volume < 1e-13                 : 0
    faces with face-decomposition tet quality < 1e-15      : 0
    faces with concavity > 80  degrees                     : 0
    faces with skewness > 4   (internal) or 20  (boundary) : 0
    faces with interpolation weights (0..1)  < 0.05        : 0
    faces with volume ratio of neighbour cells < 0.01      : 0
    faces with face twist < 0.02                           : 0
    faces on cells with determinant < 0.001                : 0
Successfully moved mesh
Moved mesh in = 0.12 s



Morph iteration 22
-----------------
Calculating patchDisplacement as distance to nearest surface point ...
    non-zone points : attract to nearest of all non-zone surfaces
    zone points     : attract to zone surface only

Wanted displacement : average:1.88185e-07 min:0 max:2.04625e-06
Calculated surface displacement in = 0 s


Detecting near surfaces ...
Overriding nearest with intersection of close gaps at 0 out of 3312 points.
Overriding displacement on features :
   implicit features    : true
   explicit features    : false
   multi-patch features : true

Attraction:
    linear   : max:(1.44692e-06 -1.44692e-06 0) avg:(1.44453e-08 -2.64915e-09 7.33277e-21)
    feature  : max:(1.44692e-06 -1.44692e-06 -0) avg:(1.09078e-08 -9.22396e-10 -4.80227e-20)
Feature analysis : total master points :3312 of which attracted to :
    feature point   : 8
    feature edge    : 316
    nearest surface : 2988
    rest            : 0

--> FOAM Warning : Displacement (2.7278e-08 -2.6799e-07 0) at mesh point 95075 coord (0.049071 0.00292939 0) points through the surrounding patch faces
Smoothing displacement ...
Iteration 0
Iteration 10
Iteration 20
Iteration 30
Iteration 40
Iteration 50
Iteration 60
Iteration 70
Iteration 80
Iteration 90
Iteration 100
Iteration 110
Iteration 120
Iteration 130
Iteration 140
Iteration 150
Iteration 160
Iteration 170
Iteration 180
Iteration 190
Iteration 200
Iteration 210
Iteration 220
Iteration 230
Iteration 240
Iteration 250
Iteration 260
Iteration 270
Iteration 280
Iteration 290
Displacement smoothed in = 0.48 s


Moving mesh ...

Iteration 0
Moving mesh using displacement scaling : min:1 max:1
Checking faces in error :
    non-orthogonality > 65  degrees                        : 0
    faces with face pyramid volume < 1e-13                 : 0
    faces with face-decomposition tet quality < 1e-15      : 0
    faces with concavity > 80  degrees                     : 0
    faces with skewness > 4   (internal) or 20  (boundary) : 0
    faces with interpolation weights (0..1)  < 0.05        : 0
    faces with volume ratio of neighbour cells < 0.01      : 0
    faces with face twist < 0.02                           : 0
    faces on cells with determinant < 0.001                : 0
Successfully moved mesh
Moved mesh in = 0.12 s



Morph iteration 23
-----------------
Calculating patchDisplacement as distance to nearest surface point ...
    non-zone points : attract to nearest of all non-zone surfaces
    zone points     : attract to zone surface only

Wanted displacement : average:8.34146e-08 min:0 max:9.7689e-07
Calculated surface displacement in = 0 s


Detecting near surfaces ...
Overriding nearest with intersection of close gaps at 0 out of 3312 points.
Overriding displacement on features :
   implicit features    : true
   explicit features    : false
   multi-patch features : true

Attraction:
    linear   : max:(6.90766e-07 -6.90766e-07 0) avg:(7.14858e-09 -1.506e-09 7.33277e-21)
    feature  : max:(6.90766e-07 -6.90766e-07 -0) avg:(5.69037e-09 -7.94194e-10 -5.43113e-20)
Feature analysis : total master points :3312 of which attracted to :
    feature point   : 8
    feature edge    : 316
    nearest surface : 2988
    rest            : 0

--> FOAM Warning : Displacement (1.22437e-08 -1.20286e-07 0) at mesh point 95075 coord (0.049071 0.00292912 0) points through the surrounding patch faces
Smoothing displacement ...
Iteration 0
Iteration 10
Iteration 20
Iteration 30
Iteration 40
Iteration 50
Iteration 60
Iteration 70
Iteration 80
Iteration 90
Iteration 100
Iteration 110
Iteration 120
Iteration 130
Iteration 140
Iteration 150
Iteration 160
Iteration 170
Iteration 180
Iteration 190
Iteration 200
Iteration 210
Iteration 220
Iteration 230
Iteration 240
Iteration 250
Iteration 260
Iteration 270
Iteration 280
Iteration 290
Displacement smoothed in = 0.49 s


Moving mesh ...

Iteration 0
Moving mesh using displacement scaling : min:1 max:1
Checking faces in error :
    non-orthogonality > 65  degrees                        : 0
    faces with face pyramid volume < 1e-13                 : 0
    faces with face-decomposition tet quality < 1e-15      : 0
    faces with concavity > 80  degrees                     : 0
    faces with skewness > 4   (internal) or 20  (boundary) : 0
    faces with interpolation weights (0..1)  < 0.05        : 0
    faces with volume ratio of neighbour cells < 0.01      : 0
    faces with face twist < 0.02                           : 0
    faces on cells with determinant < 0.001                : 0
Successfully moved mesh
Moved mesh in = 0.12 s



Morph iteration 24
-----------------
Calculating patchDisplacement as distance to nearest surface point ...
    non-zone points : attract to nearest of all non-zone surfaces
    zone points     : attract to zone surface only

Wanted displacement : average:3.3076e-08 min:0 max:4.09926e-07
Calculated surface displacement in = 0 s


Detecting near surfaces ...
Overriding nearest with intersection of close gaps at 0 out of 3312 points.
Overriding displacement on features :
   implicit features    : true
   explicit features    : false
   multi-patch features : true

Attraction:
    linear   : max:(2.89861e-07 -2.89861e-07 0) avg:(3.10653e-09 -7.13835e-10 7.33277e-21)
    feature  : max:(2.89861e-07 -2.89861e-07 -0) avg:(2.58157e-09 -4.57585e-10 -5.3789e-20)
Feature analysis : total master points :3312 of which attracted to :
    feature point   : 8
    feature edge    : 316
    nearest surface : 2988
    rest            : 0

--> FOAM Warning : Displacement (4.78268e-09 -4.69869e-08 0) at mesh point 95075 coord (0.0490711 0.002929 0) points through the surrounding patch faces
Smoothing displacement ...
Iteration 0
Iteration 10
Iteration 20
Iteration 30
Iteration 40
Iteration 50
Iteration 60
Iteration 70
Iteration 80
Iteration 90
Iteration 100
Iteration 110
Iteration 120
Iteration 130
Iteration 140
Iteration 150
Iteration 160
Iteration 170
Iteration 180
Iteration 190
Iteration 200
Iteration 210
Iteration 220
Iteration 230
Iteration 240
Iteration 250
Iteration 260
Iteration 270
Iteration 280
Iteration 290
Displacement smoothed in = 0.47 s


Moving mesh ...

Iteration 0
Moving mesh using displacement scaling : min:1 max:1
Checking faces in error :
    non-orthogonality > 65  degrees                        : 0
    faces with face pyramid volume < 1e-13                 : 0
    faces with face-decomposition tet quality < 1e-15      : 0
    faces with concavity > 80  degrees                     : 0
    faces with skewness > 4   (internal) or 20  (boundary) : 0
    faces with interpolation weights (0..1)  < 0.05        : 0
    faces with volume ratio of neighbour cells < 0.01      : 0
    faces with face twist < 0.02                           : 0
    faces on cells with determinant < 0.001                : 0
Successfully moved mesh
Moved mesh in = 0.12 s



Morph iteration 25
-----------------
Calculating patchDisplacement as distance to nearest surface point ...
    non-zone points : attract to nearest of all non-zone surfaces
    zone points     : attract to zone surface only

Wanted displacement : average:1.13116e-08 min:0 max:1.47502e-07
Calculated surface displacement in = 0 s


Detecting near surfaces ...
Overriding nearest with intersection of close gaps at 0 out of 3312 points.
Overriding displacement on features :
   implicit features    : true
   explicit features    : false
   multi-patch features : true

Attraction:
    linear   : max:(1.043e-07 -1.043e-07 0) avg:(1.15892e-09 -2.82281e-10 7.33277e-21)
    feature  : max:(1.043e-07 -1.043e-07 -0) avg:(9.98522e-10 -2.03982e-10 -5.11707e-20)
Feature analysis : total master points :3312 of which attracted to :
    feature point   : 8
    feature edge    : 316
    nearest surface : 2988
    rest            : 0

--> FOAM Warning : Displacement (1.58062e-09 -1.55286e-08 0) at mesh point 95075 coord (0.0490711 0.00292895 0) points through the surrounding patch faces
Smoothing displacement ...
Iteration 0
Iteration 10
Iteration 20
Iteration 30
Iteration 40
Iteration 50
Iteration 60
Iteration 70
Iteration 80
Iteration 90
Iteration 100
Iteration 110
Iteration 120
Iteration 130
Iteration 140
Iteration 150
Iteration 160
Iteration 170
Iteration 180
Iteration 190
Iteration 200
Iteration 210
Iteration 220
Iteration 230
Iteration 240
Iteration 250
Iteration 260
Iteration 270
Iteration 280
Iteration 290
Displacement smoothed in = 0.89 s


Moving mesh ...

Iteration 0
Moving mesh using displacement scaling : min:1 max:1
Checking faces in error :
    non-orthogonality > 65  degrees                        : 0
    faces with face pyramid volume < 1e-13                 : 0
    faces with face-decomposition tet quality < 1e-15      : 0
    faces with concavity > 80  degrees                     : 0
    faces with skewness > 4   (internal) or 20  (boundary) : 0
    faces with interpolation weights (0..1)  < 0.05        : 0
    faces with volume ratio of neighbour cells < 0.01      : 0
    faces with face twist < 0.02                           : 0
    faces on cells with determinant < 0.001                : 0
Successfully moved mesh
Moved mesh in = 0.15 s



Morph iteration 26
-----------------
Calculating patchDisplacement as distance to nearest surface point ...
    non-zone points : attract to nearest of all non-zone surfaces
    zone points     : attract to zone surface only

Wanted displacement : average:3.21395e-09 min:0 max:4.39332e-08
Calculated surface displacement in = 0 s


Detecting near surfaces ...
Overriding nearest with intersection of close gaps at 0 out of 3312 points.
Overriding displacement on features :
   implicit features    : true
   explicit features    : false
   multi-patch features : true

Attraction:
    linear   : max:(3.10655e-08 -3.10655e-08 0) avg:(3.59299e-10 -9.11039e-11 7.33277e-21)
    feature  : max:(3.10655e-08 -3.10655e-08 -0) avg:(3.19377e-10 -7.16163e-11 -3.70291e-20)
Feature analysis : total master points :3312 of which attracted to :
    feature point   : 8
    feature edge    : 316
    nearest surface : 2988
    rest            : 0

--> FOAM Warning : Displacement (4.24243e-10 -4.16792e-09 0) at mesh point 95075 coord (0.0490711 0.00292894 0) points through the surrounding patch faces
Smoothing displacement ...
Iteration 0
Iteration 10
Iteration 20
Iteration 30
Iteration 40
Iteration 50
Iteration 60
Iteration 70
Iteration 80
Iteration 90
Iteration 100
Iteration 110
Iteration 120
Iteration 130
Iteration 140
Iteration 150
Iteration 160
Iteration 170
Iteration 180
Iteration 190
Iteration 200
Iteration 210
Iteration 220
Iteration 230
Iteration 240
Iteration 250
Iteration 260
Iteration 270
Iteration 280
Iteration 290
Displacement smoothed in = 0.62 s


Moving mesh ...

Iteration 0
Moving mesh using displacement scaling : min:1 max:1
Checking faces in error :
    non-orthogonality > 65  degrees                        : 0
    faces with face pyramid volume < 1e-13                 : 0
    faces with face-decomposition tet quality < 1e-15      : 0
    faces with concavity > 80  degrees                     : 0
    faces with skewness > 4   (internal) or 20  (boundary) : 0
    faces with interpolation weights (0..1)  < 0.05        : 0
    faces with volume ratio of neighbour cells < 0.01      : 0
    faces with face twist < 0.02                           : 0
    faces on cells with determinant < 0.001                : 0
Successfully moved mesh
Moved mesh in = 0.22 s



Morph iteration 27
-----------------
Calculating patchDisplacement as distance to nearest surface point ...
    non-zone points : attract to nearest of all non-zone surfaces
    zone points     : attract to zone surface only

Wanted displacement : average:7.18412e-10 min:0 max:1.02602e-08
Calculated surface displacement in = 0 s


Detecting near surfaces ...
Overriding nearest with intersection of close gaps at 0 out of 3312 points.
Overriding displacement on features :
   implicit features    : true
   explicit features    : false
   multi-patch features : true

Attraction:
    linear   : max:(7.25506e-09 -7.25506e-09 0) avg:(8.80755e-11 -2.29365e-11 7.33277e-21)
    feature  : max:(7.25506e-09 -7.25506e-09 -0) avg:(8.04902e-11 -1.92339e-11 -5.58848e-20)
Feature analysis : total master points :3312 of which attracted to :
    feature point   : 8
    feature edge    : 316
    nearest surface : 2988
    rest            : 0

--> FOAM Warning : Displacement (8.66875e-11 -8.51651e-10 0) at mesh point 95075 coord (0.0490711 0.00292893 0) points through the surrounding patch faces
Smoothing displacement ...
Iteration 0
Iteration 10
Iteration 20
Iteration 30
Iteration 40
Iteration 50
Iteration 60
Iteration 70
Iteration 80
Iteration 90
Iteration 100
Iteration 110
Iteration 120
Iteration 130
Iteration 140
Iteration 150
Iteration 160
Iteration 170
Iteration 180
Iteration 190
Iteration 200
Iteration 210
Iteration 220
Iteration 230
Iteration 240
Iteration 250
Iteration 260
Iteration 270
Iteration 280
Iteration 290
Displacement smoothed in = 1.03 s


Moving mesh ...

Iteration 0
Moving mesh using displacement scaling : min:1 max:1
Checking faces in error :
    non-orthogonality > 65  degrees                        : 0
    faces with face pyramid volume < 1e-13                 : 0
    faces with face-decomposition tet quality < 1e-15      : 0
    faces with concavity > 80  degrees                     : 0
    faces with skewness > 4   (internal) or 20  (boundary) : 0
    faces with interpolation weights (0..1)  < 0.05        : 0
    faces with volume ratio of neighbour cells < 0.01      : 0
    faces with face twist < 0.02                           : 0
    faces on cells with determinant < 0.001                : 0
Successfully moved mesh
Moved mesh in = 0.22 s



Morph iteration 28
-----------------
Calculating patchDisplacement as distance to nearest surface point ...
    non-zone points : attract to nearest of all non-zone surfaces
    zone points     : attract to zone surface only

Wanted displacement : average:1.14993e-10 min:0 max:1.71065e-09
Calculated surface displacement in = 0 s


Detecting near surfaces ...
Overriding nearest with intersection of close gaps at 0 out of 3312 points.
Overriding displacement on features :
   implicit features    : true
   explicit features    : false
   multi-patch features : true

Attraction:
    linear   : max:(1.20961e-09 -1.20961e-09 0) avg:(1.56781e-11 -4.13831e-12 7.33277e-21)
    feature  : max:(1.20961e-09 -1.20961e-09 -0) avg:(1.47004e-11 -3.66107e-12 -8.57397e-20)
Feature analysis : total master points :3312 of which attracted to :
    feature point   : 8
    feature edge    : 316
    nearest surface : 2988
    rest            : 0

--> FOAM Warning : Displacement (1.19854e-11 -1.17749e-10 0) at mesh point 95075 coord (0.0490711 0.00292893 0) points through the surrounding patch faces
Smoothing displacement ...
Iteration 0
Iteration 10
Iteration 20
Iteration 30
Iteration 40
Iteration 50
Iteration 60
Iteration 70
Iteration 80
Iteration 90
Iteration 100
Iteration 110
Iteration 120
Iteration 130
Iteration 140
Iteration 150
Iteration 160
Iteration 170
Iteration 180
Iteration 190
Iteration 200
Iteration 210
Iteration 220
Iteration 230
Iteration 240
Iteration 250
Iteration 260
Iteration 270
Iteration 280
Iteration 290
Displacement smoothed in = 1.02 s


Moving mesh ...

Iteration 0
Moving mesh using displacement scaling : min:1 max:1
Checking faces in error :
    non-orthogonality > 65  degrees                        : 0
    faces with face pyramid volume < 1e-13                 : 0
    faces with face-decomposition tet quality < 1e-15      : 0
    faces with concavity > 80  degrees                     : 0
    faces with skewness > 4   (internal) or 20  (boundary) : 0
    faces with interpolation weights (0..1)  < 0.05        : 0
    faces with volume ratio of neighbour cells < 0.01      : 0
    faces with face twist < 0.02                           : 0
    faces on cells with determinant < 0.001                : 0
Successfully moved mesh
Moved mesh in = 0.22 s



Morph iteration 29
-----------------
Calculating patchDisplacement as distance to nearest surface point ...
[...]

--> FOAM Warning : Displacement (8.4082e-13 -8.26063e-12 0) at mesh point 95075 coord (0.0490711 0.00292893 0) points through the surrounding patch faces
Smoothing displacement ...
Iteration 0
Iteration 10
Iteration 20
Iteration 30
Iteration 40
Iteration 50
Iteration 60
Iteration 70
Iteration 80
Iteration 90
Iteration 100
Iteration 110
Iteration 120
Iteration 130
Iteration 140
Iteration 150
Iteration 160
Iteration 170
Iteration 180
Iteration 190
Iteration 200
Iteration 210
Iteration 220
Iteration 230
Iteration 240
Iteration 250
Iteration 260
Iteration 270
Iteration 280
Iteration 290
Displacement smoothed in = 1.02 s


Moving mesh ...

Iteration 0
Moving mesh using displacement scaling : min:1 max:1
Checking faces in error :
    non-orthogonality > 65  degrees                        : 0
    faces with face pyramid volume < 1e-13                 : 0
    faces with face-decomposition tet quality < 1e-15      : 0
    faces with concavity > 80  degrees                     : 0
    faces with skewness > 4   (internal) or 20  (boundary) : 0
    faces with interpolation weights (0..1)  < 0.05        : 0
    faces with volume ratio of neighbour cells < 0.01      : 0
    faces with face twist < 0.02                           : 0
    faces on cells with determinant < 0.001                : 0
Successfully moved mesh
Moved mesh in = 0.22 s


Repatching faces according to nearest surface ...
Repatched 0 faces in = 0.02 s


Edge intersection testing:
    Number of edges             : 263080
    Number of edges to retest   : 83426
    Number of intersected edges : 3212
Merging 1472 sets of faces.

Edge intersection testing:
    Number of edges             : 261596
    Number of edges to retest   : 5934
    Number of intersected edges : 1728

Undo iteration 0
----------------
Checking faces in error :
    non-orthogonality > 65  degrees                        : 0
    faces with face pyramid volume < 1e-13                 : 0
    faces with face-decomposition tet quality < 1e-15      : 0
    faces with concavity > 80  degrees                     : 0
    faces with skewness > 4   (internal) or 20  (boundary) : 0
    faces with interpolation weights (0..1)  < 0.05        : 0
    faces with volume ratio of neighbour cells < 0.01      : 0
    faces with face twist < 0.02                           : 0
    faces on cells with determinant < 0.001                : 0

Merging all points on surface that
- are used by only two boundary faces and
- make an angle with a cosine of more than 0.984808.

Removing 1506 straight edge points ...

Edge intersection testing:
    Number of edges             : 261596
    Number of edges to retest   : 5934
    Number of intersected edges : 1728

Undo iteration 0
----------------
Checking faces in error :
    non-orthogonality > 65  degrees                        : 0
    faces with face pyramid volume < 1e-13                 : 0
    faces with face-decomposition tet quality < 1e-15      : 0
    faces with concavity > 80  degrees                     : 0
    faces with skewness > 4   (internal) or 20  (boundary) : 0
    faces with interpolation weights (0..1)  < 0.05        : 0
    faces with volume ratio of neighbour cells < 0.01      : 0
    faces with face twist < 0.02                           : 0
    faces on cells with determinant < 0.001                : 0
Snapped mesh : cells:82241  faces:261596  points:97604
Cells per refinement level:
    0	814
    1	3907
    2	68920
    3	8600
Writing mesh to time constant
Wrote mesh in = 0.17 s.
Mesh snapped in = 32.01 s.
Layer specification as
- first layer thickness ('firstLayerThickness')
- expansion ratio ('expansionRatio')

Shrinking and layer addition phase
----------------------------------

Using mesh parameters 
{
    maxNonOrtho     65;
    maxBoundarySkewness 20;
    maxInternalSkewness 4;
    maxConcave      80;
    minVol          1e-13;
    minTetQuality   1e-15;
    minArea         -1;
    minTwist        0.02;
    minDeterminant  0.001;
    minFaceWeight   0.05;
    minVolRatio     0.01;
    minTriangleTwist -1;
    minEdgeLength   -1;
    relaxed
    {
        maxNonOrtho     75;
    }
    nSmoothScale    4;
    errorReduction  0.75;
}



Merging all faces of a cell
---------------------------
    - which are on the same patch
    - which make an angle < 150 degrees (cos:-0.866025)
    - as long as the resulting face doesn't become concave by more than 90 degrees
      (0=straight, 180=fully concave)

Merging 0 sets of faces.

No faces merged ...

Merging all points on surface that
- are used by only two boundary faces and
- make an angle with a cosine of more than -0.866025.

No straight edges simplified and no points removed ...

Checking mesh manifoldness ...

Checking initial mesh ...
Checking faces in error :
    non-orthogonality > 65  degrees                        : 0
    faces with face pyramid volume < 1e-13                 : 0
    faces with face-decomposition tet quality < 1e-15      : 0
    faces with concavity > 80  degrees                     : 0
    faces with skewness > 4   (internal) or 20  (boundary) : 0
    faces with interpolation weights (0..1)  < 0.05        : 0
    faces with volume ratio of neighbour cells < 0.01      : 0
    faces with face twist < 0.02                           : 0
    faces on cells with determinant < 0.001                : 0
Detected 0 illegal faces (concave, zero area or negative cell pyramid volume)
Duplicating 0 points on faceZones of type boundary

Handling points with inconsistent layer specification ...
dupNonManifoldPoints : Found : 0 non-manifold points (out of 97604)

Handling points with inconsistent layer specification ...

Handling non-manifold points ...

Checking patch manifoldness ...
Outside of local patch is multiply connected across edges or points at 0 points.
Set displacement to zero for all 0 non-manifold points

Handling feature edges (angle < 150) ...
Set displacement to zero for points on 0 feature edges

patch     faces    layers avg thickness[m]
                          near-wall overall
-----     -----    ------ --------- -------
wallUpper 4096     3      0.0001    0.000331
wallLower 4224     3      0.0001    0.000331
wallPlate 1728     3      0.0001    0.000331


Outer iteration : 0
-------------------

Adding in total 0 inter-processor patches to handle extrusion of non-manifold processor boundaries.
Selecting externalDisplacementMeshMover displacementMedialAxis
displacementMedialAxis : Calculating distance to Medial Axis ...
fieldSmoother : Smoothing normals ...
    Iteration 0   residual 0.0110826
displacementMedialAxis : Inserting points on patch inlet if angle to nearest layer patch > 75 degrees.
displacementMedialAxis : Inserting points on patch outlet if angle to nearest layer patch > 75 degrees.
displacementMedialAxis : Inserting points on patch front if angle to nearest layer patch > 75 degrees.
displacementMedialAxis : Inserting points on patch back if angle to nearest layer patch > 75 degrees.
fieldSmoother : Smoothing normals in interior ...
    Iteration 0   residual 0.0235519

Layer addition iteration 0
--------------------------

Determining displacement for added points according to pointNormal ...
Detected 0 points with point normal pointing through faces.
Reset displacement at 0 points to average of surrounding points.

displacementMedialAxis : Smoothing using Medial Axis ...
displacementMedialAxis : Reducing layer thickness at 0 nodes where thickness to medial axis distance is large 
displacementMedialAxis : Removing isolated regions ...
- if partially extruded faces make angle < 75
- if exclusively surrounded by non-extruded faces
displacementMedialAxis : Number of isolated points extrusion stopped : 0
fieldSmoother : Smoothing field ...
    Iteration 0   residual 3.5468e-11
displacementMedialAxis : Moving mesh ...
displacementMedialAxis : Iteration 0
Moving mesh using displacement scaling : min:1 max:1
Checking faces in error :
    non-orthogonality > 65  degrees                        : 0
    faces with face pyramid volume < 1e-13                 : 0
    faces with face-decomposition tet quality < 1e-15      : 0
    faces with concavity > 80  degrees                     : 0
    faces with skewness > 4   (internal) or 20  (boundary) : 4
    faces with interpolation weights (0..1)  < 0.05        : 0
    faces with volume ratio of neighbour cells < 0.01      : 0
    faces with face twist < 0.02                           : 0
    faces on cells with determinant < 0.001                : 0
displacementMedialAxis : Iteration 1
Moving mesh using displacement scaling : min:0.75 max:1
Checking faces in error :
    non-orthogonality > 65  degrees                        : 0
    faces with face pyramid volume < 1e-13                 : 0
    faces with face-decomposition tet quality < 1e-15      : 0
    faces with concavity > 80  degrees                     : 0
    faces with skewness > 4   (internal) or 20  (boundary) : 4
    faces with interpolation weights (0..1)  < 0.05        : 0
    faces with volume ratio of neighbour cells < 0.01      : 0
    faces with face twist < 0.02                           : 0
    faces on cells with determinant < 0.001                : 0
displacementMedialAxis : Iteration 2
Moving mesh using displacement scaling : min:0.5625 max:1
Checking faces in error :
    non-orthogonality > 65  degrees                        : 0
    faces with face pyramid volume < 1e-13                 : 0
    faces with face-decomposition tet quality < 1e-15      : 0
    faces with concavity > 80  degrees                     : 0
    faces with skewness > 4   (internal) or 20  (boundary) : 4
    faces with interpolation weights (0..1)  < 0.05        : 0
    faces with volume ratio of neighbour cells < 0.01      : 0
    faces with face twist < 0.02                           : 0
    faces on cells with determinant < 0.001                : 0
displacementMedialAxis : Iteration 3
Moving mesh using displacement scaling : min:0.421875 max:1
Checking faces in error :
    non-orthogonality > 65  degrees                        : 0
    faces with face pyramid volume < 1e-13                 : 0
    faces with face-decomposition tet quality < 1e-15      : 0
    faces with concavity > 80  degrees                     : 0
    faces with skewness > 4   (internal) or 20  (boundary) : 4
    faces with interpolation weights (0..1)  < 0.05        : 0
    faces with volume ratio of neighbour cells < 0.01      : 0
    faces with face twist < 0.02                           : 0
    faces on cells with determinant < 0.001                : 0
displacementMedialAxis : Iteration 4
Moving mesh using displacement scaling : min:0.316406 max:1
Checking faces in error :
    non-orthogonality > 65  degrees                        : 0
    faces with face pyramid volume < 1e-13                 : 0
    faces with face-decomposition tet quality < 1e-15      : 0
    faces with concavity > 80  degrees                     : 0
    faces with skewness > 4   (internal) or 20  (boundary) : 4
    faces with interpolation weights (0..1)  < 0.05        : 0
    faces with volume ratio of neighbour cells < 0.01      : 0
    faces with face twist < 0.02                           : 0
    faces on cells with determinant < 0.001                : 0
displacementMedialAxis : Iteration 5
displacementMedialAxis : Displacement scaling for error reduction set to 0.
Moving mesh using displacement scaling : min:0.237305 max:1
Checking faces in error :
    non-orthogonality > 65  degrees                        : 0
    faces with face pyramid volume < 1e-13                 : 0
    faces with face-decomposition tet quality < 1e-15      : 0
    faces with concavity > 80  degrees                     : 0
    faces with skewness > 4   (internal) or 20  (boundary) : 4
    faces with interpolation weights (0..1)  < 0.05        : 0
    faces with volume ratio of neighbour cells < 0.01      : 0
    faces with face twist < 0.02                           : 0
    faces on cells with determinant < 0.001                : 0
displacementMedialAxis : Iteration 6
Moving mesh using displacement scaling : min:0 max:1
Checking faces in error :
    non-orthogonality > 65  degrees                        : 0
    faces with face pyramid volume < 1e-13                 : 0
    faces with face-decomposition tet quality < 1e-15      : 2
    faces with concavity > 80  degrees                     : 0
    faces with skewness > 4   (internal) or 20  (boundary) : 0
    faces with interpolation weights (0..1)  < 0.05        : 0
    faces with volume ratio of neighbour cells < 0.01      : 0
    faces with face twist < 0.02                           : 0
    faces on cells with determinant < 0.001                : 0
displacementMedialAxis : Iteration 7
Moving mesh using displacement scaling : min:0 max:1
Checking faces in error :
    non-orthogonality > 65  degrees                        : 0
    faces with face pyramid volume < 1e-13                 : 0
    faces with face-decomposition tet quality < 1e-15      : 14
    faces with concavity > 80  degrees                     : 0
    faces with skewness > 4   (internal) or 20  (boundary) : 0
    faces with interpolation weights (0..1)  < 0.05        : 0
    faces with volume ratio of neighbour cells < 0.01      : 0
    faces with face twist < 0.02                           : 0
    faces on cells with determinant < 0.001                : 0
displacementMedialAxis : Iteration 8
Moving mesh using displacement scaling : min:0 max:1
Checking faces in error :
    non-orthogonality > 65  degrees                        : 0
    faces with face pyramid volume < 1e-13                 : 0
    faces with face-decomposition tet quality < 1e-15      : 8
    faces with concavity > 80  degrees                     : 0
    faces with skewness > 4   (internal) or 20  (boundary) : 2
    faces with interpolation weights (0..1)  < 0.05        : 0
    faces with volume ratio of neighbour cells < 0.01      : 0
    faces with face twist < 0.02                           : 0
    faces on cells with determinant < 0.001                : 0
displacementMedialAxis : Iteration 9
Moving mesh using displacement scaling : min:0 max:1
Checking faces in error :
    non-orthogonality > 65  degrees                        : 0
    faces with face pyramid volume < 1e-13                 : 0
    faces with face-decomposition tet quality < 1e-15      : 20
    faces with concavity > 80  degrees                     : 0
    faces with skewness > 4   (internal) or 20  (boundary) : 0
    faces with interpolation weights (0..1)  < 0.05        : 0
    faces with volume ratio of neighbour cells < 0.01      : 0
    faces with face twist < 0.02                           : 0
    faces on cells with determinant < 0.001                : 0
displacementMedialAxis : Finished moving mesh ...
truncateDisplacement : Unextruded 0 faces due to non-consecutive vertices being extruded.
truncateDisplacement : Unextruded 0 faces due to stringed edges with inconsistent extrusion.

Setting up information for layer truncation ...
Detected 0 baffles across faceZones of type internal


Checking mesh with layer ...
Checking faces in error :
    non-orthogonality > 65  degrees                        : 4
    faces with face pyramid volume < 1e-13                 : 0
    faces with face-decomposition tet quality < 1e-15      : 26
    faces with concavity > 80  degrees                     : 0
    faces with skewness > 4   (internal) or 20  (boundary) : 0
    faces with interpolation weights (0..1)  < 0.05        : 0
    faces with volume ratio of neighbour cells < 0.01      : 0
    faces with face twist < 0.02                           : 0
    faces on cells with determinant < 0.001                : 0
Detected 30 illegal faces (concave, zero area or negative cell pyramid volume)
Extruding 10004 out of 10048 faces (99.5621%). Removed extrusion at 7 faces.
Added 29920 out of 30144 cells (99.2569%).


Layer addition iteration 1
--------------------------

Determining displacement for added points according to pointNormal ...
Detected 0 points with point normal pointing through faces.
Reset displacement at 0 points to average of surrounding points.

displacementMedialAxis : Smoothing using Medial Axis ...
displacementMedialAxis : Reducing layer thickness at 0 nodes where thickness to medial axis distance is large 
displacementMedialAxis : Removing isolated regions ...
- if partially extruded faces make angle < 75
- if exclusively surrounded by non-extruded faces
displacementMedialAxis : Number of isolated points extrusion stopped : 6
fieldSmoother : Smoothing field ...
    Iteration 0   residual 1.45422e-07
displacementMedialAxis : Moving mesh ...
displacementMedialAxis : Iteration 0
Moving mesh using displacement scaling : min:1 max:1
Checking faces in error :
    non-orthogonality > 65  degrees                        : 0
    faces with face pyramid volume < 1e-13                 : 0
    faces with face-decomposition tet quality < 1e-15      : 0
    faces with concavity > 80  degrees                     : 0
    faces with skewness > 4   (internal) or 20  (boundary) : 0
    faces with interpolation weights (0..1)  < 0.05        : 0
    faces with volume ratio of neighbour cells < 0.01      : 0
    faces with face twist < 0.02                           : 0
    faces on cells with determinant < 0.001                : 0
displacementMedialAxis : Successfully moved mesh
displacementMedialAxis : Finished moving mesh ...
truncateDisplacement : Unextruded 0 faces due to non-consecutive vertices being extruded.
truncateDisplacement : Unextruded 0 faces due to stringed edges with inconsistent extrusion.

Setting up information for layer truncation ...
Detected 0 baffles across faceZones of type internal


Checking mesh with layer ...
Checking faces in error :
    non-orthogonality > 65  degrees                        : 0
    faces with face pyramid volume < 1e-13                 : 0
    faces with face-decomposition tet quality < 1e-15      : 0
    faces with concavity > 80  degrees                     : 0
    faces with skewness > 4   (internal) or 20  (boundary) : 0
    faces with interpolation weights (0..1)  < 0.05        : 0
    faces with volume ratio of neighbour cells < 0.01      : 0
    faces with face twist < 0.02                           : 0
    faces on cells with determinant < 0.001                : 0
Detected 0 illegal faces (concave, zero area or negative cell pyramid volume)
Extruding 10000 out of 10048 faces (99.5223%). Removed extrusion at 0 faces.
Added 29878 out of 30144 cells (99.1176%).
Edge intersection testing:
    Number of edges             : 353105
    Number of edges to retest   : 0
    Number of intersected edges : 6912
Mesh with layers : cells:112119  faces:353105  points:129362

patch     faces        layers        overall thickness
                   target   mesh     [m]       [%]
-----     -----    -----    ----     ---       ---
wallUpper 4096     3        3        0.000331  100     
wallLower 4224     3        2.94     0.000323  97.7    
wallPlate 1728     3        3        0.000331  100     

Layer mesh : cells:112119  faces:353105  points:129362
Cells per refinement level:
    0	814
    1	3907
    2	93614
    3	13784
Writing mesh to time constant
Wrote mesh in = 0.19 s.
Layers added in = 2.93 s.
Checking final mesh ...
Checking faces in error :
    non-orthogonality > 65  degrees                        : 0
    faces with face pyramid volume < 1e-13                 : 0
    faces with face-decomposition tet quality < 1e-15      : 0
    faces with concavity > 80  degrees                     : 0
    faces with skewness > 4   (internal) or 20  (boundary) : 0
    faces with interpolation weights (0..1)  < 0.05        : 0
    faces with volume ratio of neighbour cells < 0.01      : 0
    faces with face twist < 0.02                           : 0
    faces on cells with determinant < 0.001                : 0
Finished meshing without any errors
Finished meshing in = 37.99 s.
End

